example/run/baseline_scenario/opendss/dss_files/WireData.dss
New WireData.OH_AL_2-0_A GMRac=0.00118872 GMRunits=m Diam=0.00307848 Radunits=m normamps=220.0 Rac=0.0001200000648

New WireData.OH_AL_2-0_B GMRac=0.00118872 GMRunits=m Diam=0.00307848 Radunits=m normamps=220.0 Rac=0.0001200000648

New WireData.OH_AL_2-0_C GMRac=0.00118872 GMRunits=m Diam=0.00307848 Radunits=m normamps=220.0 Rac=0.0001200000648

New WireData.OH_AL_2-0_N GMRac=0.00118872 GMRunits=m Diam=0.00307848 Radunits=m normamps=220.0 Rac=0.0001200000648

New WireData.OH_TPLX_2-0_S1 GMRac=0.00118872 GMRunits=m Diam=0.00307848 Radunits=m normamps=200.0 Rac=0.0001200000648

New WireData.OH_TPLX_2-0_S2 GMRac=0.00118872 GMRunits=m Diam=0.00307848 Radunits=m normamps=200.0 Rac=0.0001200000648

New WireData.OH_TPLX_2-0_N GMRac=0.00118872 GMRunits=m Diam=0.00307848 Radunits=m normamps=200.0 Rac=0.0001200000648

New WireData.OH_AL_1-0_A GMRac=0.00118872 GMRunits=m Diam=0.00307848 Radunits=m normamps=220.0 Rac=0.0001200000648

New WireData.OH_AL_1-0_B GMRac=0.00118872 GMRunits=m Diam=0.00307848 Radunits=m normamps=220.0 Rac=0.0001200000648

New WireData.OH_AL_1-0_C GMRac=0.00118872 GMRunits=m Diam=0.00307848 Radunits=m normamps=220.0 Rac=0.0001200000648

New WireData.OH_AL_1-0_N GMRac=0.00118872 GMRunits=m Diam=0.00307848 Radunits=m normamps=220.0 Rac=0.0001200000648

